
[CONTROL]
MAXFILES=8
BASEFILE=image.jpg

-----------------------------------------
 Lackierung
-----------------------------------------

[LAYER1]
OPTIONS=aliased[1],paint["lack"]
AUTOFILE=MASK
MODE=1

[LAYER2]
OPTIONS=aliased[1],paint["lack"]
FILE0=KEYTeileWagenfarbe
MODE=1

[LAYER6]
OPTIONS=
FILE0=KEYParkDistanceControl
MODE=0

[LAYER7]
OPTIONS=paint["lack"]
FILE0=KEYParkDistanceControl--KEYTeileWagenfarbe
MODE=1

[LAYER8]
OPTIONS=aliased[8]
FILE0=Sensoren-Schwarz
MODE=0

[LAYER10]
OPTIONS=aliased[10]
FILE0=KEYAerodynamikpaket-Nopaint
FILE1=KEYMAerodynamikpaket-Nopaint
MODE=0

[LAYER11]
OPTIONS=aliased[1],paint["lack"]
FILE0=KEYAerodynamikpaket
FILE1=KEYMAerodynamikpaket
MODE=1

[LAYER12]
OPTIONS=aliased[12]
FILE0=KEYParkDistanceControlLow
MODE=0

[LAYER13]
OPTIONS=aliased[13]
FILE0=KEYParkDistanceControlLow--KEYMAeroDynamikpaket
MODE=0
HIDE=12

[LAYER14]
OPTIONS=paint["lack"]
FILE0=KEYParkDistanceControl--KEYAeroDynamikpaket
FILE1=KEYParkDistanceControl--KEYMAeroDynamikpaket
MODE=1

-----------------------------------------
 Scheinwerferreinigungsanlage
-----------------------------------------

[LAYER15]
OPTIONS=paint["lack"]
FILE0=KEYScheinwerferreinigungsanlage
MODE=1

-----------------------------------------
 Nebelscheinwerfer
-----------------------------------------

[LAYER16]
OPTIONS=
FILE0=KEYNebelscheinwerfer
MODE=0

-----------------------------------------
 Xenonlicht
-----------------------------------------

[LAYER17]
OPTIONS=
FILE0=KEYXenonscheinwerfer
MODE=0

-----------------------------------------
 Weisse Blinker
-----------------------------------------

[LAYER18]
OPTIONS=aliased[18]
FILE0=KEYWeisseBlinker
MODE=0

-----------------------------------------
 Schiebedach
-----------------------------------------

[LAYER20]
OPTIONS=aliased[20]
FILE0=KEYGlasschiebedach
MODE=0
CONCAT=21

[LAYER21]
OPTIONS=paint["lack"]
FILE0=TLGlasschiebedach
MODE=2


-----------------------------------------
 Traegersysteme
-----------------------------------------

[LAYER22]
OPTIONS=aliased[22]
FILE0=KEYGrundtraeger
FILE1=KEYSkitraeger
FILE2=KEYSurfboardhalterung
FILE3=KEYSnowboardhalterung
FILE4=KEYDachbox
FILE5=KEYGepaeckkorb
FILE6=KEYRennradhalterung
MODE=0

[LAYER23]
OPTIONS=aliased[23]
FILE0=KEYDachboxLackiert-NoPaint
FILE1=KEYDachboxLackiertLang-NoPaint
MODE=0

[LAYER24]
OPTIONS=aliased[24],paint["lack"]
FILE0=KEYDachboxLackiert
FILE1=KEYDachboxLackiertLang
MODE=1

