
[CONTROL]
MAXFILES=8
BASEFILE=image.jpg

-----------------------------------------
 Lackierung
-----------------------------------------

[LAYER1]
OPTIONS=aliased[1],paint["lack"]
AUTOFILE=MASK
MODE=1

[LAYER2]
OPTIONS=aliased[1],paint["lack"]
FILE0=KEYTeileWagenfarbe
MODE=1

[LAYER6]
OPTIONS=
FILE0=KEYParkDistanceControl
MODE=0

[LAYER7]
OPTIONS=paint["lack"]
FILE0=KEYParkDistanceControl--KEYTeileWagenfarbe
MODE=1

[LAYER10]
OPTIONS=aliased[10]
FILE0=KEYAerodynamikpaket-Nopaint
FILE1=KEYMAerodynamikpaket-Nopaint
MODE=0

[LAYER11]
OPTIONS=aliased[1],paint["lack"]
FILE0=KEYAerodynamikpaket
FILE1=KEYMAerodynamikpaket
MODE=1
CONCAT=10

[LAYER12]
OPTIONS=aliased[12]
FILE0=KEYParkDistanceControlLow
MODE=0

[LAYER13]
OPTIONS=paint["lack"]
FILE0=KEYParkDistanceControl--KEYAeroDynamikpaket
FILE1=KEYParkDistanceControl--KEYMAeroDynamikpaket
MODE=1


-----------------------------------------
 Scheinwerferreinigungsanlage
-----------------------------------------

[LAYER14]
OPTIONS=paint["lack"]
FILE0=KEYScheinwerferreinigungsanlage
MODE=1

-----------------------------------------
 Nebelscheinwerfer
-----------------------------------------

[LAYER15]
OPTIONS=
FILE0=KEYNebelscheinwerfer
MODE=0

-----------------------------------------
 Xenonlicht
-----------------------------------------

[LAYER16]
OPTIONS=
FILE0=KEYXenonscheinwerfer
MODE=0


-----------------------------------------
 Traegersysteme
-----------------------------------------

[LAYER23]
OPTIONS=aliased[23]
FILE0=KEYGrundtraeger
FILE1=KEYSkitraeger
FILE2=KEYSurfboardhalterung
FILE3=KEYSnowboardhalterung
FILE4=KEYDachbox
FILE5=KEYGepaeckkorb
FILE6=KEYRennradhalterung
FILE7=KEYUniversalhalterung
MODE=0

[LAYER24]
OPTIONS=aliased[24]
FILE0=KEYDachboxLackiert-NoPaint
MODE=0

[LAYER25]
OPTIONS=aliased[25],paint["lack"]
FILE0=KEYDachboxLackiert
MODE=1
CONCAT=24

[LAYER26]
OPTIONS=aliased[26]
FILE0=KEYDachboxLackiertLang-NoPaint
MODE=0

[LAYER27]
OPTIONS=aliased[27],paint["lack"]
FILE0=KEYDachboxLackiertLang
MODE=1
CONCAT=26